egret/models/tests/pglib_opf_case3_lmbd_acopf_1000.json
{"elements": {"bus": {"1": {"matpower_bustype": "ref", "area": 1.0, "vm": 1.1, "va": 0.0, "base_kv": 240.0, "zone": 1.0, "v_min": 0.9, "v_max": 1.1, "lmp": 37.57471946491672, "qlmp": 6.330776548405672e-11, "pl": 110.00000000000001, "ql": 40.0}, "2": {"matpower_bustype": "PV", "area": 1.0, "vm": 0.9261705368424002, "va": 0.12669049215638326, "base_kv": 240.0, "zone": 1.0, "v_min": 0.9, "v_max": 1.1, "lmp": 30.101069856510392, "qlmp": -1.0238215126244995e-11, "pl": 110.00000000000001, "ql": 40.0}, "3": {"matpower_bustype": "PV", "area": 1.0, "vm": 0.9, "va": -0.3013676943395255, "base_kv": 240.0, "zone": 1.0, "v_min": 0.9, "v_max": 1.1, "lmp": 45.536477989020796, "qlmp": -6.351824247346186e-12, "pl": 95.0, "ql": 50.0}}, "load": {"load_1": {"in_service": true, "p_load": 110.00000000000001, "q_load": 40.0, "bus": "1"}, "load_2": {"in_service": true, "p_load": 110.00000000000001, "q_load": 40.0, "bus": "2"}, "load_3": {"in_service": true, "p_load": 95.0, "q_load": 50.0, "bus": "3"}}, "generator": {"1": {"bus": "1", "pg": 148.06690667468212, "qg": 54.697267818982944, "vg": 1.0, "mbase": 100.0, "in_service": true, "p_min": 0.0, "p_max": 2000.0, "q_min": -1000.0, "q_max": 1000.0, "generator_type": "thermal", "p_cost": {"data_type": "cost_curve", "cost_curve_type": "polynomial", "values": {"0": 0.0, "1": 5.0, "2": 0.11}}, "startup_cost": 0.0, "shutdown_cost": 0.0}, "2": {"bus": "2", "pg": 170.006293291239, "qg": -8.791134988584256, "vg": 1.0, "mbase": 100.0, "in_service": true, "p_min": 0.0, "p_max": 2000.0, "q_min": -1000.0, "q_max": 1000.0, "generator_type": "thermal", "p_cost": {"data_type": "cost_curve", "cost_curve_type": "polynomial", "values": {"0": 0.0, "1": 1.2, "2": 0.08500000000000002}}, "startup_cost": 0.0, "shutdown_cost": 0.0}, "3": {"bus": "3", "pg": 0.0, "qg": -4.842636765619885, "vg": 1.0, "mbase": 100.0, "in_service": true, "p_min": 0.0, "p_max": 0.0, "q_min": -1000.0, "q_max": 1000.0, "generator_type": "thermal", "p_cost": {"data_type": "cost_curve", "cost_curve_type": "polynomial", "values": {"0": 0.0, "1": 0.0, "2": 0.0}}, "startup_cost": 0.0, "shutdown_cost": 0.0}}, "branch": {"1": {"from_bus": "1", "to_bus": "3", "resistance": 0.065, "reactance": 0.62, "charging_susceptance": 0.45, "branch_type": "line", "rating_long_term": 9000.0, "rating_short_term": 9000.0, "rating_emergency": 9000.0, "in_service": true, "angle_diff_min": -30.0, "angle_diff_max": 30.0, "pf": 51.307119185219754, "qf": 10.076336036378374, "pt": -49.14556828305884, "qt": -34.90846563430613, "pfl": 2.161550902160908, "qfl": -24.83212959792776, "pf_dual": 3757.471946491809, "qf_dual": 6.359722337758037e-09}, "2": {"from_bus": "3", "to_bus": "2", "resistance": 0.025, "reactance": 0.75, "charging_susceptance": 0.7, "branch_type": "line", "rating_long_term": 50.0, "rating_short_term": 50.0, "rating_emergency": 50.0, "in_service": true, "angle_diff_min": -30.0, "angle_diff_max": 30.0, "pf": -45.85443171694115, "qf": -19.934171131313747, "pt": 46.525251197361925, "qt": -18.31395912106425, "pfl": 0.6708194804207701, "qfl": -38.248130252378, "pf_dual": 4136.503354327226, "qf_dual": -181.3440537613807}, "3": {"from_bus": "1", "to_bus": "2", "resistance": 0.042, "reactance": 0.9, "charging_susceptance": 0.3, "branch_type": "line", "rating_long_term": 9000.0, "rating_short_term": 9000.0, "rating_emergency": 9000.0, "in_service": true, "angle_diff_min": -30.0, "angle_diff_max": 30.0, "pf": -13.240212510537644, "qf": 4.620931782604567, "pt": 13.481042093877083, "qt": -30.477175867520007, "pfl": 0.2408295833394386, "qfl": -25.856244084915442, "pf_dual": 3757.4719464916357, "qf_dual": 6.344484085688218e-09}}}, "system": {"model_name": "pglib_opf_case3_lmbd", "mpc_version": "'2'", "baseMVA": 100.0, "reference_bus": "1", "reference_bus_angle": 0.0, "total_cost": 5812.6429385491665, "ploss": 3.0731999659211167, "qloss": -88.93650393522121, "mult": 1.0}, "results": {"time": 0.020042896270751953, "#_cons": 36, "#_vars": 23, "termination": "optimal"}}